GRID,1,,0.2,0.0,0.0
GRID,2,,0.2,4.0,0.0
GRID,3,,0.2,5.0,0.0
GRID,4,,0.0,5.0,0.0
GRID,5,,0.0,4.0,0.0
GRID,6,,0.0,0.0,0.0
GRID,7,,0.2,0.0,0.2
GRID,8,,0.2,4.0,0.2
GRID,9,,0.2,5.0,0.2
GRID,10,,0.0,5.0,0.2
GRID,11,,0.0,4.0,0.2
GRID,12,,0.0,0.0,0.2
MAT1,1,20000000000.0,0.3
PSOLID,1,1
CHEXA8,1,1,1,2,5,6,7,8,11
continue,12
CHEXA8,2,1,2,3,4,5,8,9,10
continue,11
FORCE,1,3,0,250.0,0.0,1.0,0.0
FORCE,1,4,0,250.0,0.0,1.0,0.0
FORCE,1,9,0,250.0,0.0,1.0,0.0
FORCE,1,10,0,250.0,0.0,1.0,0.0
SPC,1,1,123456,0.0
SPC,2,6,123456,0.0
SPC,3,7,123456,0.0
SPC,4,12,123456,0.0