GRID,1,,1.0,0.0,0.0
GRID,2,,1.0,1.0,0.0
GRID,3,,1.0,2.0,0.0
GRID,4,,1.0,3.0,0.0
GRID,5,,1.0,4.0,0.0
GRID,6,,1.0,5.0,0.0
GRID,7,,1.0,6.0,0.0
GRID,8,,1.0,7.0,0.0
GRID,9,,1.0,8.0,0.0
GRID,10,,1.0,9.0,0.0
GRID,11,,0.0,9.0,0.0
GRID,12,,0.0,8.0,0.0
GRID,13,,0.0,7.0,0.0
GRID,14,,0.0,6.0,0.0
GRID,15,,0.0,5.0,0.0
GRID,16,,0.0,4.0,0.0
GRID,17,,0.0,3.0,0.0
GRID,18,,0.0,2.0,0.0
GRID,19,,0.0,1.0,0.0
GRID,20,,0.0,0.0,0.0
$ ... 20 like lines cut
MAT1,1,20000000000.0,0.3
PSOLID,1,1
CHEXA8,1,1,1,2,19,20,21,22,39
continue,40
CHEXA8,2,1,2,3,18,19,22,23,38
continue,39
CHEXA8,3,1,3,4,17,18,23,24,37
continue,38
CHEXA8,4,1,4,5,16,17,24,25,36
continue,37
CHEXA8,5,1,5,6,15,16,25,26,35
continue,36
CHEXA8,6,1,6,7,14,15,26,27,34
continue,35
CHEXA8,7,1,7,8,13,14,27,28,33
continue,34
CHEXA8,8,1,8,9,12,13,28,29,32
continue,33
CHEXA8,9,1,9,10,11,12,29,30,31
continue,32
FORCE,1,10,0,250.0,0.0,1.0,0.0
FORCE,2,11,0,250.0,0.0,1.0,0.0
FORCE,3,30,0,250.0,0.0,1.0,0.0
FORCE,4,31,0,250.0,0.0,1.0,0.0
SPC,1,1,123456,0.0
SPC,2,20,123456,0.0
SPC,3,21,123456,0.0
SPC,4,40,123456,0.0