GRID,1,,2.5,0.0,0.0
GRID,2,,2.5,20.0,0.0
GRID,3,,0.0,20.0,0.0
GRID,4,,0.0,0.0,0.0
GRID,5,,2.5,0.0,0.8
GRID,6,,2.5,20.0,0.8
GRID,7,,0.0,20.0,0.8
GRID,8,,0.0,0.0,0.8
MAT1,1,30000000.0,0.3
PSOLID,1,1
CHEXA8,1,1,1,2,3,4,5,6,7
continue,8
FORCE,1,7,0,-1000.0,0.0,0.0,1.0
SPC,1,1,123,0.0
SPC,2,4,123,0.0
SPC,3,5,123,0.0
SPC,4,8,123,0.0