GRID,1,,0.2,0.0,0.0
GRID,2,,0.2,5.0,0.0
GRID,3,,0.0,5.0,0.0
GRID,4,,0.0,0.0,0.0
GRID,5,,0.2,0.0,0.2
GRID,6,,0.2,5.0,0.2
GRID,7,,0.0,5.0,0.2
GRID,8,,0.0,0.0,0.2
MAT1,1,20000000000.0,0.3
PSOLID,1,1
CHEXA8,1,1,1,2,3,4,5,6,7
continue,8
FORCE,1,2,0,250.0,0.0,1.0,0.0
FORCE,2,3,0,250.0,0.0,1.0,0.0
FORCE,3,6,0,250.0,0.0,1.0,0.0
FORCE,4,7,0,250.0,0.0,1.0,0.0
SPC,1,1,123456,0.0
SPC,2,4,123456,0.0
SPC,3,5,123456,0.0
SPC,4,8,123456,0.0