GRID    1       0.0     0.0     0.0
GRID    2       1.0     0.0     0.0
GRID    3       2.0     0.0     0.0
CROD    20      100     2       3
PROD    100     200     0.00031416
MAT1    200     2.0E11  0.3
SPC1    1       123456  1
FORCE   100     3       0       1000.0  1.0    0.0    0.0
LOAD    100     1.0     100     1.0