CROD, 10, 1, 1, 2
CROD, 11, 1, 1, 2
CROD, 12, 1, 1, 2
GRID, 1,0,  0.0, 0.0, 0.0
MAT1, 1, 21343, , 234234
PROD, 1, 1, 50.0