GRID, 1, , 0.0, 0.0, 0.0
CROD, 10, 1, 1, 2
MAT1, 1, 210000, 0.3
PROD, 1, 1, 50.0
FORCE, 100, 4, 1000.0, 1.0, 0.0, 0.0