GRID, 1, , 0.0, 0.0, 0.0
GRID, 2, , 100.0, 0.0, 0.0
GRID, 3, , 200.0, 100.0, 0.0
GRID, 4, , 300.0, 100.0, 0.0
CROD, 10, 1, 1, 2
MAT1, 1, 21000.0, 0.3
PROD, 1, 1, 50.0