GRID, 1,  0.0, 0.0, 0.0
CROD, 10, 1, 1, 2
MAT1, 1, 21343, , 234234
continue,32,543,243