GRID,1,,0.0,0.0,0.0
GRID,2,,1.0,0.0,0.0
GRID,3,,2.0,0.0,0.0
GRID,4,,2.0,1.0,0.0
GRID,5,,1.0,1.0,0.0
GRID,6,,0.0,1.0,0.0
MAT1,1,210000000000.0,0.3
MAT1,2,180000000000.0,0.3
PSHELL,1,1,0.5,2
CTRIA3,1,1,1,5,6
CTRIA3,2,1,1,2,5
CTRIA3,3,1,2,3,5
CTRIA3,4,1,3,4,5
FORCE,1,3,0,-1000.0,0.0,0.0,1.0
MOMENT,1,3,0,-1000.0,0.0,1.0,0.0
SPC,1,1,123456,0.0
SPC,2,6,123456,0.0