GRID,1,,0.0,0.0,0.0
GRID,2,,2.0,0.0,0.0
GRID,3,,4.0,0.0,0.0
GRID,4,,0.0,2.0,0.0
GRID,5,,2.0,2.0,0.0
GRID,6,,4.0,2.0,0.0
GRID,7,,0.0,4.0,0.0
GRID,8,,2.0,4.0,0.0
GRID,9,,4.0,4.0,0.0
MAT1,1,200000000000.0,0.3
PSHELL,1,1,0.1,1
CQUAD4,1,1,1,2,5,4
CQUAD4,2,1,2,3,6,5
CQUAD4,3,1,4,5,8,7
CQUAD4,4,1,5,6,9,8
FORCE,1,5,0,1000.0,0.0,0.0,1.0
SPC,1,1,123456,0.0
SPC,2,2,123456,0.0
SPC,3,3,123456,0.0
SPC,4,4,123456,0.0
SPC,5,6,123456,0.0
SPC,6,7,123456,0.0
SPC,7,8,123456,0.0
SPC,8,9,123456,0.0