GRID,1,,0.0,0.0,0.0
GRID,2,,1.0,0.0,0.0
GRID,3,,2.0,0.0,0.0
GRID,4,,0.0,1.0,0.0
GRID,5,,1.0,1.0,0.0
GRID,6,,2.0,1.0,0.0
GRID,7,,0.0,2.0,0.0
GRID,8,,1.0,2.0,0.0
GRID,9,,2.0,2.0,0.0
MAT1,1,210000000000.0,0.3
MAT1,2,180000000000.0,0.3
PSHELL,1,1,0.5,2
CQUAD4,1,1,1,2,5,4
CQUAD4,2,1,2,3,6,5
CQUAD4,3,1,5,6,9,8
CQUAD4,4,1,4,5,8,7
FORCE,1,3,0,1000.0,1.0,1.0,1.0
SPC,1,1,123456,0.0
SPC,2,2,123456,0.0
SPC,3,3,123456,0.0
SPC,4,4,123456,0.0
SPC,5,7,123456,0.0