PSHELL,1,1,0.1,1
CQUAD4,1,1,1,2,3,4
MAT1,1,200000000000.0,0.3
GRID,1,,0.0,0.0,0.0
GRID,2,,2.0,0.0,0.0
GRID,3,,2.0,2.0,0.0
GRID,4,,0.0,2.0,0.0
FORCE,1,3,0,100.0,1.0,0.0,0.0
SPC,1,1,123456,0.0
SPC,2,4,123456,0.0