GRID,1,,0.0,0.0,0.0
GRID,2,,1.0,0.0,0.0
MAT1,200,200000000000.0,0.3
PBAR,100,200,0.00031416,0.000000007854,0.000000007854,0.000000015708
CBAR,10,100,1,2,0.0,1.0,0.0
SPC,1,1,123456,0.0
FORCE,100,2,0,-1000.0,0.0,1.0,0.0