GRID,1,0,0.0,0.0,0.0
GRID,2,0,1.0,0.0,0.0
CBAR,10,100,1,2,0.0,1.0,0.0
MAT1,200,210000000000.0,0.3
PBAR,100,200,0.0003,0.000000001,0.000000002
SPC,1,1,123456,0.0
FORCE,100,2,0,10.0,0.0,0.0,1.0