GRID,1,,0.0,0.0,0.0
GRID,2,,0.0,100.0,0.0
GRID,3,,100.0,100.0,0.0
GRID,4,,100.0,0.0,0.0
MAT1,200,20000000.0,0.3
PBAR,100,200,10.0,25.0,25.0,10.0
CBAR,10,100,1,2,1.0,0.0,0.0
CBAR,20,100,2,3,0.0,1.0,0.0
CBAR,30,100,3,4,1.0,0.0,0.0
SPC,1,1,123456,0.0
SPC,2,4,123456,0.0
FORCE,100,2,0,10000.0,1.0,0.0,0.0