GRID,1,0,0.0,0.0,0.0
GRID,2,0,1.0,0.0,0.0
CBAR,10,100,1,2,0.0,1.0,0.0
MAT1,200,2100000,0.3
PBAR,100,200,0.003,0.000078539,0.000078539
SPC,1,2,123456,0.0
FORCE,100,2,0,0.0,0.0,10.0,0.0,0.0,1.0