$ MSC.Nastran input file created on August    24, 2025 at 20:03:12 by
$ Patran 2019
$ Direct Text Input for Nastran System Cell Section
$ Direct Text Input for File Management Section
$ Direct Text Input for Executive Control
$ Linear Static Analysis, Database
SOL 101
CEND
$ Direct Text Input for Global Case Control Data
TITLE = MSC.Nastran job created on 24-Aug-25 at 20:02:18
ECHO = NONE
SUBCASE 1
   SUBTITLE=Default
   SPC = 2
   LOAD = 2
   DISPLACEMENT(SORT1,REAL)=ALL
   SPCFORCES(SORT1,REAL)=ALL
   STRESS(SORT1,REAL,VONMISES,BILIN)=ALL
$ Direct Text Input for this Subcase
BEGIN BULK
$ Direct Text Input for Bulk Data
MDLPRM   HDF5    0
PARAM   PRTMAXIM YES
param,extout,dmigpch
$ Elements and Element Properties for region : prop
PSHELL   1       1      .1       1               1
$ Pset: "prop" will be imported as: "pshell.1"
CQUAD4   1       1       1       2       4       3
$ Referenced Material Records
$ Material Record : material
$ Description of Material : Date: 24-Aug-25           Time: 20:00:23
MAT1     1      2.+11           .3
$ Nodes of the Entire Model
GRID     1               0.      0.      0.
GRID     2              2.       0.      0.
GRID     3               0.     1.       0.
GRID     4              2.      1.       0.
$ Loads for Load Case : Default
SPCADD   2       1
LOAD     2      1.      1.       1
$ Displacement Constraints of Load Set : fix
SPC1     1       123456  1       3
$ Nodal Forces of Load Set : force
FORCE    1       4       0      173.205 .57735  .57735  .57735
$ Referenced Coordinate Frames
ENDDATA a940b6d0
