GRID,1,0,0.0,0.0,0.0
GRID,2,0,4.0,0.0,0.0
GRID,3,0,5.0,0.0,0.0
CROD,20,100,2,3
PROD,100,200,4
MAT1,200,210000.0,0.3
SPC,1,2,123,0.0
FORCE,100,3,0,1000.0,1.0,0.0,0.0
LOAD,100,1.0,100,1.0