GRID,1,,0.0,0.0,0.0          
GRID,2,,2.0,0.0,0.0            
GRID,3,,4.0,0.0,0.0             
CROD,100,10,1,2            
CROD,200,10,2,3                  
MAT1,20,210000.0,,0.3           
PROD,10,20,0.001                    
SPC,100,1,123,0.0                 
FORCE,300,3,0,1000.0,1.0,0.0,0.0 